%mem=500MW
%nproc=7
#p Temperature=358.15 int=(grid=ultrafine) CPHF=(grid=fine) freq rb3lyp/aug-cc-pvdz

CH3O-Ph-RB3LYP-aug-cc-pVDZ--

0 1
C           0.03519         1.06371         0.00000
C          -1.33621         1.35437         0.00000
C          -2.28671         0.33359         0.00000
C          -1.85557        -1.00056         0.00000
C          -0.49704        -1.30670         0.00000
C           0.45515        -0.27383         0.00000
H           0.75326         1.88030         0.00000
H          -1.65585         2.39726         0.00000
H          -2.58625        -1.81044         0.00000
H          -0.14901        -2.33929         0.00000
O           1.76389        -0.67462         0.00000
C           2.77358         0.32761         0.00000
H           3.72701        -0.20982         0.00000
H           2.70998         0.96001         0.89924
H           2.70998         0.96001        -0.89924
H          -3.35058         0.56978         0.00000


nprocshared=7
