%mem=500MW
%nproc=7
#p Temperature=358.15 int=(grid=ultrafine) CPHF=(grid=fine) freq rb3lyp/aug-cc-pvdz

p-NO2-Ph-F-RB3LYP-aug-cc-pVDZ--

0 1
C          -0.00071        -1.22245         0.00000
C          -1.39458        -1.22404         0.00000
C          -2.06048         0.00000         0.00000
C          -1.39458         1.22404         0.00000
C          -0.00071         1.22245         0.00000
C           0.67554         0.00000         0.00000
H           0.56530        -2.15044         0.00000
H          -1.96310        -2.15231        -0.00000
H          -1.96310         2.15231         0.00000
H           0.56530         2.15044         0.00000
N           2.14857         0.00000         0.00000
O           2.72054        -1.08779         0.00000
O           2.72054         1.08779        -0.00000
F          -3.41332         0.00000         0.00000


nprocshared=7
