%mem=500MW
%nproc=7
#p  scrf=(cpcm,solvent=water) opt=(cartesian,tight,maxcycles=2000) scf=(verytight,maxcycles=700) NoSymm  Temperature=348.15 int=(grid=ultrafine) CPHF=(grid=fine) freq rb3lyp/aug-cc-pvdz

m-NO2-Ph-N2-OTf-RB3LYP-aug-cc-pVDZ--

0 1
C          -1.73173        -1.60774        -0.70743
C          -0.88184        -0.50789        -0.58715
C          -1.46412         0.70369        -0.17788
C          -2.82619         0.87393         0.09898
C          -3.61833        -0.25781        -0.03079
C          -3.09676        -1.49373        -0.42761
H          -1.31905        -2.56480        -1.02195
H           0.18880        -0.53390        -0.81981
H          -3.25164         1.82551         0.40705
N          -0.62859         1.81404        -0.04042
N           0.20653         2.54083         0.11291
S           2.75451         0.67961        -0.26166
C           3.28033        -1.01992         0.40239
O           1.86075         0.33396        -1.43079
O           4.01934         1.38471        -0.57131
O           1.94775         1.23240         0.90950
F           2.18270        -1.76674         0.68405
F           4.00667        -1.67739        -0.51411
F           4.00341        -0.89712         1.52326
H          -3.76744        -2.34594        -0.51426
N          -5.06746        -0.13740         0.25916
O          -5.74793        -1.14732         0.13588
O          -5.47982         0.96514         0.60074


nprocshared=7
