%mem=500MW
%nproc=7
#p Temperature=353.15 int=(grid=ultrafine) CPHF=(grid=fine) freq rb3lyp/aug-cc-pvdz

NO2-Ph-RB3LYP-aug-cc-pVDZ--

0 1
C           2.52122         0.00000         0.00000
C           1.82462         1.21404         0.00000
C           0.42874         1.22286         0.00000
C          -0.24485         0.00000         0.00000
C           0.42874        -1.22286        -0.00000
C           1.82462        -1.21404        -0.00000
H           3.61154         0.00000         0.00000
H           2.36925         2.15798         0.00000
H          -0.13873         2.15005         0.00000
H          -0.13873        -2.15005        -0.00000
H           2.36924        -2.15798        -0.00000
N          -1.72234         0.00000         0.00000
O          -2.29467         1.08727        -0.00000
O          -2.29467        -1.08727         0.00000


nprocshared=7
