%mem=500MW
%nproc=7
#p Temperature=358.15 int=(grid=ultrafine) CPHF=(grid=fine) freq rb3lyp/aug-cc-pvdz

m-NO2-Ph-Ph-m-NO2-RB3LYP-aug-cc-pVDZ--

0 1
C          -3.05793         0.17721        -0.05789
C          -1.80343        -0.42934        -0.06804
C          -0.67505         0.31178         0.31479
C          -0.85510         1.65444         0.69787
C          -2.12203         2.24266         0.69946
C          -3.24543         1.50692         0.31906
H          -1.72247        -1.46175        -0.39732
H           0.00380         2.24226         1.02022
H          -2.23650         3.28157         1.00712
H          -4.24276         1.93835         0.31124
C           0.67512        -0.31176         0.31464
C           0.85527        -1.65441         0.69774
C           1.80342         0.42934        -0.06850
C           2.12220        -2.24262         0.69904
H          -0.00356        -2.24221         1.02032
C           3.05791        -0.17721        -0.05861
H           1.72238         1.46173        -0.39780
C           3.24551        -1.50690         0.31834
H           2.23674        -3.28153         1.00673
H           4.24284        -1.93834         0.31031
N          -4.23264        -0.62162        -0.47050
O          -4.04465        -1.79338        -0.78844
O          -5.32795        -0.06688        -0.46875
N           4.23252         0.62160        -0.47155
O           4.04446         1.79334        -0.78949
O           5.32784         0.06685        -0.47004


nprocshared=7
