%mem=500MW
%nproc=7
#p Temperature=358.15 int=(grid=ultrafine) CPHF=(grid=fine) freq rb3lyp/aug-cc-pvdz

o-NO2-Ph-OTf-RB3LYP-aug-cc-pVDZ--

0 1
C          -3.07413        -2.06516        -0.29278
C          -1.71412        -1.85218        -0.52641
C          -1.18606        -0.56262        -0.44768
C          -2.02733         0.51323        -0.12081
C          -3.38361         0.29544         0.12876
C          -3.90915        -0.99250         0.03389
H          -3.47926        -3.07417        -0.36440
H          -1.04492        -2.67557        -0.76945
S           1.23636        -0.71620         0.54413
C           2.68843         0.23419        -0.25076
O           0.16801        -0.37715        -0.71942
O           0.79894        -0.01644         1.76325
O           1.56830        -2.15045         0.54220
F           2.92729        -0.25267        -1.46682
F           2.40556         1.52739        -0.31401
F           3.74904         0.03300         0.53624
H          -4.97033        -1.15646         0.21691
N          -1.53949         1.90375        -0.04952
O          -2.10216         2.64785         0.74824
O          -0.63367         2.23375        -0.80648
H          -4.00733         1.14679         0.39128


nprocshared=7
