%mem=500MW
%nproc=7
#p opt=(verytight,maxcycles=1000) int=(grid=ultrafine) CPHF=(grid=fine) freq rb3lyp/aug-cc-pvdz

CH3O-Ph-RB3LYP-aug-cc-pVDZ--

0 1
C           0.22340        -1.21400        -0.16285
C           1.58994        -1.20979         0.08334
C           2.28099         0.00000         0.20927
C           1.58994         1.20979         0.08334
C           0.21340         1.21400        -0.16285
C          -0.46146        -0.00000        -0.28362
H          -0.33454        -2.14913        -0.27903
H           2.14531        -2.15609         0.17055
H           2.12530         2.15610         0.17054
H          -0.33455         2.14913        -0.27904
O          -1.82271        -0.00001        -0.58298
C          -2.68338         0.00000         0.55923
H          -3.70960        -0.00000         0.17508
H          -2.52099         0.89781         1.17654
H          -2.52099        -0.89780         1.17656
H           3.35480         0.00001         0.39748


nprocshared=7
