%mem=500MW
%nproc=7
#p Temperature=358.15 int=(grid=ultrafine) CPHF=(grid=fine) freq rb3lyp/aug-cc-pvdz

m-NO2-Ph-OTf-RB3LYP-aug-cc-pVDZ--

0 1
C           2.31453         2.30688        -0.20304
C           0.97299         1.95869        -0.38469
C           0.62535         0.60673        -0.42327
C           1.57065        -0.40544        -0.28640
C           2.89945        -0.01925        -0.11283
C           3.29188         1.31878        -0.06601
H           2.60004         3.35756        -0.17219
H           0.20066         2.71718        -0.49751
H           1.29105        -1.45457        -0.31690
S          -1.73505         0.18020         0.65104
C          -3.20385        -0.47914        -0.37017
O          -0.70893         0.24613        -0.68173
O          -1.29008        -0.87006         1.58116
O          -2.05350         1.54334         1.10843
F          -3.52009         0.39457        -1.32393
F          -2.88869        -1.65460        -0.90885
F          -4.22803        -0.62369         0.47291
H           4.34095         1.56658         0.07237
N           3.92765        -1.07487         0.02306
O           5.08837        -0.71667         0.19880
O           3.55663        -2.24222        -0.04999


nprocshared=7
