%mem=500MW
%nproc=7
#p opt=(verytight,maxcycles=1000) int=(grid=ultrafine) CPHF=(grid=fine) freq rb3lyp/aug-cc-pvdz

NO2-Ph-RB3LYP-aug-cc-pVDZ

0 1
C          -1.36680         1.06980         0.14060
C          -0.27810         1.24690         0.99490
C           0.41950         2.45470         0.99460
C           0.02910         3.48560         0.13900
C          -1.05900         3.30820        -0.71540
C          -1.75730         2.10040        -0.71430
H          -1.91690         0.11770         0.14130
H           0.02910         0.43450         1.66930
H           1.27730         2.59460         1.66840
H          -1.36690         4.12050        -1.38980
H          -2.61530         1.96090        -1.38780
N           0.76460         4.75830         0.13890
O           1.69560         4.87910         0.88530
O           0.40430         5.62520        -0.60760


nprocshared=7
