%mem=500MW
%nproc=7
#p opt=(verytight,maxcycles=1000) int=(grid=ultrafine) CPHF=(grid=fine) freq rb3lyp/aug-cc-pvdz

o-NO2-Ph-OTf-RB3LYP-aug-cc-pVDZ

0 1
C          -1.83510        -0.92060        -6.23170
C          -0.45150        -0.81130        -6.30960
C           0.09300         0.45320        -6.07420
C          -0.63180         1.59970        -5.74120
C          -2.01370         1.46660        -5.66850
C          -2.58250         0.21640        -5.91940
H          -2.33330        -1.86660        -6.38740
H           0.18940        -1.66250        -6.48940
S           1.97200         0.02550        -4.88800
C           3.79620         0.17800        -4.97380
O           1.49520         0.57730        -6.15530
O           1.64520         0.79380        -3.64890
O           1.78360        -1.44110        -4.67380
F           4.29720        -0.51990        -6.00450
F           4.17470         1.45930        -5.09720
F           4.36300        -0.30970        -3.83350
H          -3.64740         0.12500        -5.86980
N           0.05880         2.85610        -5.41660
O          -0.60090         3.79830        -5.07690
O           1.25450         2.88880        -5.50450
H          -2.63950         2.29410        -5.40670


nprocshared=7
