%mem=500MW
%nproc=7
#p opt=(verytight,maxcycles=1000) int=(grid=ultrafine) CPHF=(grid=fine) freq rb3lyp/aug-cc-pvdz

p-CH3O-Ph-OTf-RB3LYP-aug-cc-pVDZ

0 1
C          -1.95850         0.00380        -0.84600
C          -0.56330         0.00370        -0.84580
C           0.13420         0.86580         0.00000
C          -0.56340         1.72940         0.84530
C          -1.95820         1.72990         0.84470
C          -2.65580         0.86670        -0.00070
H          -2.50820        -0.67630        -1.51270
H          -0.01380        -0.67730        -1.51190
H          -0.01320         2.40920         1.51210
H          -2.50840         2.41040         1.51090
O           1.56420         0.86510         0.00080
S           2.12280         1.96550        -1.12440
O           1.56590         3.49100        -0.73520
O           1.56830         1.54070        -2.64130
C           3.90280         1.96510        -1.12180
F           4.35100         2.30860         0.10450
F           4.35300         0.73180        -1.43630
F           4.35430         2.85450        -2.03140
O          -4.08580         0.86700        -0.00080
C          -4.56340        -0.07630         0.96200
H          -4.20540         0.19340         1.93360
H          -5.63340        -0.07440         0.96290
H          -4.20880        -1.05390         0.70990


nprocshared=7
