%mem=500MW
%nproc=7
#p Temperature=358.15 int=(grid=ultrafine) CPHF=(grid=fine) freq rb3lyp/aug-cc-pvdz

p-NO2-Ph-N2-OTf-RB3LYP-aug-cc-pVDZ--

0 1
C           2.19838        -0.68375        -0.44809
C           1.08820         0.16034        -0.42814
C           1.30128         1.47587         0.00808
C           2.54426         1.99081         0.41057
C           3.63312         1.12821         0.39106
C           3.43568        -0.18790        -0.03819
H           2.10662        -1.71666        -0.77466
H           0.08621        -0.14267        -0.75021
H           2.64462         3.02500         0.73333
H           4.62311         1.45582         0.69666
N           4.61232        -1.10153        -0.06110
O           5.68523        -0.63878         0.30801
O           4.42358        -2.24694        -0.44701
N           0.19995         2.33548         0.03996
N          -0.79388         2.84202         0.10751
S          -2.76803         0.42210        -0.32474
C          -2.85608        -1.34384         0.36779
O          -2.23054         1.19927         0.87379
O          -4.15175         0.74560        -0.74128
O          -1.73182         0.31573        -1.42035
F          -1.62003        -1.75424         0.74801
F          -3.66490        -1.40291         1.43391
F          -3.30699        -2.19223        -0.56832


nprocshared=7
