%mem=500MW
%nproc=7
#p opt=(verytight,maxcycles=1000) SCF=(maxcycles=1024,conver=6) int=(grid=ultrafine) CPHF=(grid=fine) freq rb3lyp/aug-cc-pvdz

p-NO2-Ph-OTs-RB3LYP-aug-cc-pVDZ--

0 1
C          3.29890       -1.40874       -0.09276
C          1.91020       -1.34383       -0.10958
C          1.28435       -0.11275       -0.31455
C          2.01962        1.06231       -0.49603
C          3.40906        1.00030       -0.46825
C          4.02730       -0.23344       -0.27094
H          1.30358       -2.23082        0.03072
H          1.50330        2.00141       -0.65172
H          4.01796        1.88496       -0.60349
C         -3.27026        1.03405       -0.63292
C         -4.54786        0.65646       -1.03647
C         -5.15297       -0.50693       -0.53826
C         -4.44230       -1.29271        0.38118
C         -3.16322       -0.93509        0.79793
C         -2.58980        0.22692        0.27981
H         -2.80770        1.93956       -1.00892
H         -5.08582        1.27669       -1.74774
H         -4.89809       -2.19531        0.77814
H         -2.61827       -1.53622        1.51708
S         -0.94028        0.69816        0.82864
O         -0.63046        0.05939        2.07846
O         -0.76923        2.13404        0.61915
O         -0.10629       -0.10523       -0.40584
C         -6.55126       -0.88758       -0.95779
H         -7.29398       -0.43308       -0.29076
H         -6.77196       -0.54510       -1.97250
H         -6.69955       -1.97026       -0.92114
H          3.80341       -2.34306        0.06042
N          5.49631       -0.29861       -0.25281
O          6.13717        0.75218       -0.41121
O          6.01716       -1.40074       -0.08142


nprocshared=7
