%mem=500MW
%nproc=7
#p scrf=(cpcm,solvent=water) opt Temperature=348.15 int=(grid=ultrafine) CPHF=(grid=fine) freq rb3lyp/aug-cc-pvdz

p-CH3O-Ph-OTf-RB3LYP-aug-cc-pVDZ--

0 1
C           2.85135        -0.98515        -0.23678
C           1.46332        -1.04195        -0.40575
C           0.72931         0.13781        -0.43049
C           1.34393         1.38387        -0.28634
C           2.72311         1.44110        -0.11936
C           3.48407         0.25888        -0.09258
H           3.41800        -1.91235        -0.22090
H           0.95655        -1.99852        -0.51904
H           0.74350         2.29147        -0.30793
H           3.23366         2.39634        -0.00713
O          -0.66231         0.08153        -0.68178
S          -1.65133        -0.04995         0.66054
O          -1.62291         1.19255         1.45238
O          -1.49503        -1.37180         1.29336
C          -3.25044        -0.06608        -0.37289
F          -3.35921         1.06662        -1.06740
F          -3.25061        -1.11052        -1.20154
F          -4.27159        -0.16981         0.48305
O           4.82649         0.42641         0.07503
C           5.65305        -0.73386         0.11896
H           5.59618        -1.29878        -0.82400
H           6.67306        -0.36540         0.26245
H           5.37680        -1.38724         0.96044


nprocshared=7
