%mem=500MW
%nproc=7
#p scrf=(cpcm,solvent=water) opt Temperature=348.15 int=(grid=ultrafine) CPHF=(grid=fine) freq rb3lyp/aug-cc-pvdz

p-CH3O-Ph-N2-OTf-RB3LYP-aug-cc-pVDZ--

0 1
C           2.19443        -0.65035        -0.57549
C           1.19451         0.30080        -0.69183
C           1.43150         1.57528        -0.14603
C           2.63114         1.92465         0.51596
C           3.61120         0.96297         0.62173
C           3.40138        -0.33193         0.08261
H           2.01709        -1.64227        -0.98071
H           0.22783         0.10487        -1.16261
H           2.76721         2.92029         0.93387
H           4.55229         1.17347         1.12573
N           0.44704         2.52646        -0.24245
N          -0.31945         3.32949        -0.32669
S          -2.29933         0.47076         0.03427
C          -2.43031        -1.42114         0.13234
O          -1.30064         0.79573         1.11875
O          -3.68978         0.94884         0.24349
O          -1.72002         0.69016        -1.34971
F          -1.21217        -1.99072        -0.08445
F          -2.85685        -1.81728         1.34292
F          -3.27499        -1.89939        -0.79635
O           4.41598        -1.18883         0.25383
C           4.29003        -2.53737        -0.23037
H           5.22906        -3.02695         0.03848
H           4.16269        -2.54591        -1.32114
H           3.44847        -3.04556         0.25865


nprocshared=7
