%mem=500MW
%nproc=7
#p Temperature=353.15 SCF=(maxcycles=1024,conver=6) int=(grid=ultrafine) CPHF=(grid=fine) freq rb3lyp/aug-cc-pvdz

p-NO2-Ph-OTs-RB3LYP-aug-cc-pVDZ--

0 1
C          -3.35940         1.21804        -0.36685
C          -1.96597         1.21642        -0.36813
C          -1.28248        -0.00390        -0.35769
C          -1.96508        -1.22456        -0.33465
C          -3.35851        -1.22711        -0.33327
C          -4.03390        -0.00480        -0.35111
H          -1.40300         2.14714        -0.37775
H          -1.40149        -2.15481        -0.31868
H          -3.92408        -2.15506        -0.31877
C           3.22544        -1.21866         0.10394
C           4.51304        -1.21204        -0.42883
C           5.18120        -0.00572        -0.70651
C           4.52508         1.20413        -0.43257
C           3.23458         1.22341         0.10104
C           2.60422         0.00664         0.35933
H           2.71364        -2.15163         0.33155
H           5.01074        -2.16188        -0.62862
H           5.03049         2.14880        -0.63471
H           2.73109         2.16166         0.32550
S           0.95593         0.01473         1.05193
O           0.66758         1.30779         1.70868
O           0.66816        -1.26198         1.74023
O           0.10678        -0.00430        -0.44224
C           6.57635        -0.02372        -1.28040
H           7.27133        -0.54480        -0.60612
H           6.59794        -0.55543        -2.24266
H           6.95665         0.99172        -1.44315
H          -3.92563         2.14563        -0.37782
N          -5.50871        -0.00540        -0.35577
O          -6.08081        -1.09307        -0.34323
O          -6.08160         1.08179        -0.37282


nprocshared=7
